Version 4.1
SHEET 1 880 680
WIRE 208 -48 192 -48
WIRE 112 48 112 -48
WIRE 112 80 112 48
WIRE 80 112 64 112
WIRE 64 128 64 112
WIRE 352 144 208 144
WIRE 416 144 352 144
WIRE 496 144 480 144
WIRE 592 144 576 144
WIRE 592 160 592 144
WIRE -80 176 -96 176
WIRE -96 192 -96 176
WIRE 112 224 112 208
FLAG -96 192 0
FLAG 112 224 0
FLAG 64 128 0
FLAG 160 272 0
FLAG 592 160 0
FLAG 352 288 0
FLAG 48 48 0
FLAG 208 -48 0
FLAG 48 -48 0
SYMBOL LM386 128 80 R0
WINDOW 38 112 122 Left 2
SYMATTR InstName U1
SYMBOL voltage 16 176 R90
WINDOW 0 -32 56 VBottom 2
WINDOW 3 32 56 VTop 2
SYMATTR InstName V1
SYMATTR Value AC 1.
SYMBOL cap 144 208 R0
SYMATTR InstName C1
SYMATTR Value 100µ
SYMBOL voltage 96 -48 R270
WINDOW 0 32 56 VTop 2
WINDOW 3 -32 56 VBottom 2
SYMATTR InstName V2
SYMATTR Value 9
SYMBOL res 96 160 R90
WINDOW 0 0 56 VBottom 2
WINDOW 3 32 56 VTop 2
SYMATTR InstName R1
SYMATTR Value 1k
SYMBOL cap 112 -64 R90
WINDOW 0 0 32 VBottom 2
WINDOW 3 32 32 VTop 2
SYMATTR InstName C2
SYMATTR Value 100µ
SYMBOL res 592 128 R90
WINDOW 0 0 56 VBottom 2
WINDOW 3 32 56 VTop 2
SYMATTR InstName R3
SYMATTR Value 8
SYMBOL cap 480 128 R90
WINDOW 0 0 32 VBottom 2
WINDOW 3 32 32 VTop 2
SYMATTR InstName C4
SYMATTR Value 1m
SYMBOL cap 336 144 R0
SYMATTR InstName C3
SYMATTR Value 100n
SYMBOL res 336 192 R0
SYMATTR InstName R2
SYMATTR Value 1k
SYMBOL cap 112 32 R90
WINDOW 0 0 32 VBottom 2
WINDOW 3 32 32 VTop 2
SYMATTR InstName C5
SYMATTR Value 100n
TEXT -232 112 Left 2 !.ac dec 10 20 20000k
TEXT -24 24 Left 2 ;ceramic
TEXT 552 112 Left 2 ;Speaker
